untitled
  ChemPy            3D                             0

 24 23  0  0  1  0  0  0  0  0999 V2000
    5.0756    0.0000   -0.0002 C   0  0  0  0  0  0  0  0  0  0  0  0
    5.7627    0.0000    1.2127 C   0  0  0  0  0  0  0  0  0  0  0  0
    7.1561    0.0000    1.2048 C   0  0  0  0  0  0  0  0  0  0  0  0
    7.8555    0.0000   -0.0001 C   0  0  0  0  0  0  0  0  0  0  0  0
    7.1563   -0.0001   -1.2050 C   0  0  0  0  0  0  0  0  0  0  0  0
    5.7627    0.0000   -1.2132 C   0  0  0  0  0  0  0  0  0  0  0  0
    3.0000    0.0000    0.0000 I   0  0  0  0  0  0  0  0  0  0  0  0
    5.2202    0.0000    2.1473 H   0  0  0  0  0  0  0  0  0  0  0  0
    7.6922    0.0000    2.1443 H   0  0  0  0  0  0  0  0  0  0  0  0
    8.9364   -0.0001    0.0000 H   0  0  0  0  0  0  0  0  0  0  0  0
    7.6924   -0.0001   -2.1444 H   0  0  0  0  0  0  0  0  0  0  0  0
    5.2205    0.0000   -2.1478 H   0  0  0  0  0  0  0  0  0  0  0  0
   -1.9418    0.0000    1.1536 N   0  0  0  0  0  0  0  0  0  0  0  0
   -1.2241    0.0000    0.0000 C   0  0  0  0  0  0  0  0  0  0  0  0
   -1.2728    0.0462    2.4365 C   0  0  0  0  0  0  0  0  0  0  0  0
   -2.0327   -0.0097   -1.2756 C   0  0  0  0  0  0  0  0  0  0  0  0
    0.0000    0.0000    0.0000 O   0  0  0  0  0  0  0  0  0  0  0  0
   -0.5039   -0.7204    2.4759 H   0  0  0  0  0  0  0  0  0  0  0  0
   -0.7949    1.0104    2.6022 H   0  0  0  0  0  0  0  0  0  0  0  0
   -2.0010   -0.1329    3.2214 H   0  0  0  0  0  0  0  0  0  0  0  0
   -2.9413    0.0611    1.1082 H   0  0  0  0  0  0  0  0  0  0  0  0
   -3.1065   -0.0381   -1.1060 H   0  0  0  0  0  0  0  0  0  0  0  0
   -1.7390   -0.8758   -1.8629 H   0  0  0  0  0  0  0  0  0  0  0  0
   -1.7829    0.8789   -1.8499 H   0  0  0  0  0  0  0  0  0  0  0  0
  1  2  1  0  0  0  0
  1  6  1  0  0  0  0
  1  7  1  0  0  0  0
  2  3  1  0  0  0  0
  2  8  1  0  0  0  0
  3  4  1  0  0  0  0
  3  9  1  0  0  0  0
  4  5  1  0  0  0  0
  4 10  1  0  0  0  0
  5  6  1  0  0  0  0
  5 11  1  0  0  0  0
  6 12  1  0  0  0  0
 13 14  1  0  0  0  0
 13 15  1  0  0  0  0
 13 21  1  0  0  0  0
 14 16  1  0  0  0  0
 14 17  2  0  0  0  0
 15 18  1  0  0  0  0
 15 19  1  0  0  0  0
 15 20  1  0  0  0  0
 16 22  1  0  0  0  0
 16 23  1  0  0  0  0
 16 24  1  0  0  0  0
M  END
